tests/fuzzer/corpus_json/21_random_024.json
{
  "version": "1.0",
  "type": "input",
  "is_batch": false,
  "attributes": {},
  "data": {
    "node": [
      {
        "id": 0,
        "u_rated": 110000.0
      },
      {
        "id": 1,
        "u_rated": 110000.0
      },
      {
        "id": 2,
        "u_rated": 110000.0
      },
      {
        "id": 3,
        "u_rated": 110000.0
      },
      {
        "id": 4,
        "u_rated": 110000.0
      },
      {
        "id": 5,
        "u_rated": 110000.0
      },
      {
        "id": 6,
        "u_rated": 110000.0
      },
      {
        "id": 7,
        "u_rated": 110000.0
      },
      {
        "id": 8,
        "u_rated": 110000.0
      },
      {
        "id": 9,
        "u_rated": 110000.0
      },
      {
        "id": 10,
        "u_rated": 110000.0
      },
      {
        "id": 11,
        "u_rated": 110000.0
      },
      {
        "id": 12,
        "u_rated": 110000.0
      }
    ],
    "source": [
      {
        "id": 13,
        "node": 0,
        "status": 1,
        "u_ref": 0.9365183773909035,
        "u_ref_angle": 0.0,
        "sk": 839815756.3382422,
        "rx_ratio": 0.49914131375897536,
        "z01_ratio": 1.0
      },
      {
        "id": 14,
        "node": 12,
        "status": 1,
        "u_ref": 1.0,
        "u_ref_angle": 0.0,
        "sk": 670919641.5929717,
        "rx_ratio": 0.1,
        "z01_ratio": 1.0
      }
    ],
    "line": [
      {
        "id": 15,
        "from_node": 0,
        "to_node": 1,
        "from_status": 1,
        "to_status": 1,
        "r1": 0.4589330667959618,
        "x1": 3.7886849045285236,
        "c1": 1.5130025749194376e-07,
        "tan1": 0.0,
        "r0": 0.3,
        "x0": 0.3,
        "c0": 1e-09,
        "tan0": 0.0,
        "i_n": 709.4990424106853
      },
      {
        "id": 16,
        "from_node": 1,
        "to_node": 2,
        "from_status": 1,
        "to_status": 1,
        "r1": 3.622246642491959,
        "x1": 3.8297139112916456,
        "c1": 4.4137775501430253e-07,
        "tan1": 0.0,
        "r0": 0.3,
        "x0": 0.3,
        "c0": 1e-09,
        "tan0": 0.0,
        "i_n": 867.1146703050917
      },
      {
        "id": 17,
        "from_node": 2,
        "to_node": 3,
        "from_status": 1,
        "to_status": 1,
        "r1": 4.939544746100043,
        "x1": 0.5779688070777927,
        "c1": 5.168944758821384e-07,
        "tan1": 0.0,
        "r0": 0.3,
        "x0": 0.3,
        "c0": 1e-09,
        "tan0": 0.0,
        "i_n": 958.5792278229961
      },
      {
        "id": 18,
        "from_node": 3,
        "to_node": 4,
        "from_status": 1,
        "to_status": 1,
        "r1": 3.6957478465592546,
        "x1": 2.2210365042780555,
        "c1": 3.046009801310218e-07,
        "tan1": 0.0,
        "r0": 0.3,
        "x0": 0.3,
        "c0": 1e-09,
        "tan0": 0.0,
        "i_n": 953.5009146867538
      },
      {
        "id": 19,
        "from_node": 4,
        "to_node": 5,
        "from_status": 1,
        "to_status": 1,
        "r1": 0.4255919787000878,
        "x1": 3.8027797361429267,
        "c1": 8.432547570122004e-07,
        "tan1": 0.0,
        "r0": 0.3,
        "x0": 0.3,
        "c0": 1e-09,
        "tan0": 0.0,
        "i_n": 166.12352352136105
      },
      {
        "id": 20,
        "from_node": 5,
        "to_node": 6,
        "from_status": 1,
        "to_status": 1,
        "r1": 1.6343530997720275,
        "x1": 1.5267909718489707,
        "c1": 5.420861441566242e-07,
        "tan1": 0.0,
        "r0": 0.3,
        "x0": 0.3,
        "c0": 1e-09,
        "tan0": 0.0,
        "i_n": 373.3273998212024
      },
      {
        "id": 21,
        "from_node": 6,
        "to_node": 7,
        "from_status": 1,
        "to_status": 1,
        "r1": 4.468453564988792,
        "x1": 4.6231610780108285,
        "c1": 3.161683554867636e-07,
        "tan1": 0.0,
        "r0": 0.3,
        "x0": 0.3,
        "c0": 1e-09,
        "tan0": 0.0,
        "i_n": 895.8320899723517
      },
      {
        "id": 22,
        "from_node": 7,
        "to_node": 8,
        "from_status": 1,
        "to_status": 1,
        "r1": 0.3480521332762565,
        "x1": 0.4845250862084255,
        "c1": 6.651303067540132e-07,
        "tan1": 0.0,
        "r0": 0.3,
        "x0": 0.3,
        "c0": 1e-09,
        "tan0": 0.0,
        "i_n": 801.0803934291189
      },
      {
        "id": 23,
        "from_node": 8,
        "to_node": 9,
        "from_status": 1,
        "to_status": 1,
        "r1": 4.09575212179523,
        "x1": 4.959889966604955,
        "c1": 8.597267440269967e-07,
        "tan1": 0.0,
        "r0": 0.3,
        "x0": 0.3,
        "c0": 1e-09,
        "tan0": 0.0,
        "i_n": 273.748029072858
      },
      {
        "id": 24,
        "from_node": 9,
        "to_node": 10,
        "from_status": 1,
        "to_status": 1,
        "r1": 3.7139253420335128,
        "x1": 4.623269036340571,
        "c1": 9.359477144755657e-08,
        "tan1": 0.0,
        "r0": 0.3,
        "x0": 0.3,
        "c0": 1e-09,
        "tan0": 0.0,
        "i_n": 499.4824879380235
      },
      {
        "id": 25,
        "from_node": 10,
        "to_node": 11,
        "from_status": 1,
        "to_status": 1,
        "r1": 0.7713879888067554,
        "x1": 0.7155021028316794,
        "c1": 4.795515775525989e-07,
        "tan1": 0.0,
        "r0": 0.3,
        "x0": 0.3,
        "c0": 1e-09,
        "tan0": 0.0,
        "i_n": 673.6773367098242
      },
      {
        "id": 26,
        "from_node": 11,
        "to_node": 12,
        "from_status": 1,
        "to_status": 1,
        "r1": 4.868786475936881,
        "x1": 0.6567447809812826,
        "c1": 5.054452513111754e-07,
        "tan1": 0.0,
        "r0": 0.3,
        "x0": 0.3,
        "c0": 1e-09,
        "tan0": 0.0,
        "i_n": 997.3916540574412
      }
    ],
    "sym_load": [
      {
        "id": 27,
        "node": 2,
        "status": 1,
        "type": 0,
        "p_specified": -83094.09822379467,
        "q_specified": -7267.51964375989
      },
      {
        "id": 28,
        "node": 3,
        "status": 1,
        "type": 2,
        "p_specified": 29738.50552797057,
        "q_specified": -2174.665152050501
      },
      {
        "id": 29,
        "node": 5,
        "status": 1,
        "type": 1,
        "p_specified": -27492.276084979618,
        "q_specified": -3484.99756298575
      },
      {
        "id": 30,
        "node": 9,
        "status": 1,
        "type": 0,
        "p_specified": 81020.33342617736,
        "q_specified": -9324.840149617337
      },
      {
        "id": 31,
        "node": 12,
        "status": 1,
        "type": 0,
        "p_specified": -92505.17624394248,
        "q_specified": 9784.904320237172
      }
    ]
  }
}